53
CELL: 30 30 30 90 90 90
 C   21.546299   14.964001   14.882401
 C   20.065500   15.100500   15.185400
 H   21.752100   14.027700   14.350800
 H   21.894598   15.784199   14.243999
 C   19.213799   15.072901   13.925400
 H   19.877100   16.039501   15.726900
 H   19.757401   14.294100   15.864301
 C   17.735399   15.349200   14.157300
 H   19.331699   14.094900   13.432799
 H   19.609800   15.813900   13.216500
 C   17.061600   14.310901   15.040199
 H   17.216101   15.389400   13.190700
 H   17.624401   16.347900   14.604900
 C   15.565201   14.417100   15.158999
 H   17.491499   14.353500   16.052099
 H   17.311800   13.307699   14.662200
 C   14.844900   13.317900   15.626099
 C   13.468800   13.381800   15.768001
 C   12.741000   14.524500   15.411301
 C   13.487999   15.636900   15.019800
 C   14.875499   15.579901   14.872200
 H   15.377099   16.483200   14.542200
 C   11.236199   14.609700   15.503699
 O   12.931800   16.843800   14.756100
 H   15.368700   12.399900   15.893101
 O   12.770399   12.330900   16.278601
 H   13.387500   11.628301   16.498501
 C   10.745099   15.888000   14.824200
 C   11.586599   17.095798   15.216301
 C   11.177400   18.343800   14.461500
 H   11.069700   18.132299   13.392600
 H   11.950199   19.108200   14.583900
 H   10.234200   18.747000   14.841001
 C   11.623199   17.369101   16.710901
 H   12.062400   16.537201   17.268600
 H   10.613100   17.546700   17.096100
 H   12.225900   18.261299   16.907101
 C    9.243000   16.003201   15.025799
 H   10.926000   15.761100   13.741800
 C    8.544600   14.871901   14.280900
 H    8.859599   16.968300   14.675700
 H    9.013200   15.939000   16.099501
 C    9.270599   13.559999   14.368200
 C   10.481999   13.443900   14.910601
 H   10.968899   14.661000   16.576500
 H    8.436600   15.135900   13.215900
 H    7.516200   14.744400   14.649000
 C    8.547299   12.392099   13.781400
 H    8.289299   12.579300   12.730200
 H    7.599000   12.209700   14.304600
 H    9.144899   11.478001   13.828500
 H   10.950300   12.465899   14.958300
 H   22.154402   14.969399   15.791700
